Version 4
SHEET 1 880 680
WIRE 144 112 0 112
WIRE 304 112 224 112
WIRE 0 128 0 112
WIRE 304 128 304 112
WIRE 192 208 0 208
WIRE 304 208 304 192
WIRE 304 208 192 208
WIRE 192 224 192 208
FLAG 192 224 0
SYMBOL res 240 96 R90
WINDOW 0 0 56 VBottom 2
WINDOW 3 32 56 VTop 2
SYMATTR InstName R1
SYMATTR Value 150k
SYMBOL cap 288 128 R0
SYMATTR InstName C1
SYMATTR Value 12n
SYMBOL voltage 0 112 R0
WINDOW 3 -301 113 Left 2
WINDOW 123 0 0 Left 0
WINDOW 39 0 0 Left 0
SYMATTR Value PULSE(0 5 0 0.001m 0.001m 8.25m 16.5m)
SYMATTR InstName V1
TEXT -304 248 Left 2 !.tran 0 100m 0 0.001
